
**** 07/01/19 09:24:04 ***** PSpice 16.6.0 (October 2012) ***** ID# 0 ********

 ** Profile: "SCHEMATIC1-t"  [ C:\Workspace\Cadence\temperature\t-pspicefiles\schematic1\t.sim ] 


 ****     CIRCUIT DESCRIPTION


******************************************************************************




** Creating circuit file "t.cir" 
** WARNING: THIS AUTOMATICALLY GENERATED FILE MAY BE OVERWRITTEN BY SUBSEQUENT SIMULATIONS

*Libraries: 
* Profile Libraries :
* Local Libraries :
.LIB "../../../tmp20.lib" 
* From [PSPICE NETLIST] section of C:\Cadence\SPB_Data\cdssetup\OrCAD_PSpice/16.6.0/PSpice.ini file:
.lib "nom.lib" 

*Analysis directives: 
.TRAN  0 .02 0 100u 
.OPTIONS ADVCONV
.PROBE64 V(alias(*)) I(alias(*)) W(alias(*)) D(alias(*)) NOISE(alias(*)) 
.INC "..\SCHEMATIC1.net" 



**** INCLUDING SCHEMATIC1.net ****
* source T
X_U1         N00360 N00356 +10V -10V N00585 LM741
X_U2         N00585 DIRECT +10V -10V DIRECT LM741
D_D1         N00585 N009551 D1N4617 
D_D2         0 N009551 D1N4617 
R_R3         N04022 N03994  1.25k TC=0,0 
X_D6         0 N04048 1n5231/ON
R_R5         N03998 N04022  100k TC=0,0 
C_C1         0 N03994  0.1u  TC=0,0 
R_R4         N03998 0  139k TC=0,0 
R_R6         N04034 N04022  330 TC=0,0 
X_U5B         N04048 SQUARE +10V -10V SQUARE LM2904/ON
D_D5         N04022 N04048 D1N5819/ON 
X_U5A         N03998 N03994 +10V -10V N04034 LM2904/ON
X_U6         DIRECT SQUARE +10V -10V N08387 LM741
R_R7         N08387 ALTERNATING  1k TC=0,0 
V_V8         N09631 0 3.29Vdc
V_V7         +10V 0 10Vdc
V_V6         -10V 0 -10Vdc
R_R10         TESTWAVE N00360  10k TC=0,0 
R_R11         REFERENCE N00356  100k TC=0,0 
R_R1         N00360 N00585  290k TC=0,0 
R_R12         0 N16156  16 TC=0,0 
X_Q1         +10V ALTERNATING N16156 awb2n2222a PARAMS:                        
+                     
X_D7         0 ALTERNATING awb1n4621 PARAMS:               
X_Q2         +10V DIRECT N173240 awb2n2222a PARAMS:                            
+                 
R_R13         N18335 N173240  13.3 TC=0,0 
D_D9         N18335 0 LP_M675-TYP 
X_U7         0 -2 REFERENCE T TMP20 
V_V10         T 0  AC 0
+SIN 40 10 .001 0 0 0
X_U8         N22139 N22147 +10V -10V TEMPERATURE LM741
R_R16         -2 N22147  20k TC=0,0 
R_R14         N22147 TEMPERATURE  115.7k TC=0,0 
R_R17         0 N22139  100k TC=0,0 
V_V12         TESTWAVE 0  AC 0
+SIN 3.5 6.75 100 0 0 0
R_R21         N27662 0  200k TC=0,0 
R_R22         REFERENCE N27662  129k TC=0,0 
R_R23         +10V REFERENCE  661k TC=0,0 
R_R25         N27934 -2  129k TC=0,0 
R_R26         -10V N27934  661k TC=0,0 
R_R24         -2 0  200k TC=0,0 

**** RESUMING t.cir ****
.END

**** 07/01/19 09:24:04 ***** PSpice 16.6.0 (October 2012) ***** ID# 0 ********

 ** Profile: "SCHEMATIC1-t"  [ C:\Workspace\Cadence\temperature\t-pspicefiles\schematic1\t.sim ] 


 ****     Diode MODEL PARAMETERS


******************************************************************************




               D1N4617         D1N5819/ON      LP_M675-TYP     X_D6.MD1        
  T_Measured                                                   27            
   T_Current                                                   25            
          IS   77.530000E-18   11.927900E-06   10.000000E-21    3.540710E-15 
           N    1.196           1.16517         1.8194          1.05719      
         ISR    1.272400E-06                                                 
          NR    2.1594                                                       
          BV    2.5491         40                                            
         IBV     .079582        1.000000E-03                                 
          RS     .01358          .062542        1.2765           .62         
          TT   94.600000E-09   26.273000E-09                   10.000000E-09 
         CJO  170.000000E-12  150.114000E-12                  170.000000E-12 
          VJ     .75            1.5                                          
           M     .53348          .590203                                     
          EG                    1.3                                          
         XTI                    3.22098                         1            


               X_D6.MD3        X_D6.MD2        X_U5B.dx        X_U5A.dx        
  T_Measured   27              27                                            
   T_Current   25              25                                            
          IS    2.500000E-12    2.500000E-12  800.000000E-18  800.000000E-18 
           N     .173176         .274509                                     
          EG     .1              .1                                          
         XTI    0               0                                            


               X_U7.DL         X_U7.DVN        X_U7.DIN        X_U7.DD         
          IS    9.500000E-12  100.000000E-18   10.000000E-15   10.000000E-15 
           N    1.63                                                         
         XTI    1.5                                                          
          KF                   70.000000E-15                                 


               X_U7.DE         X_U1.x_lm741.dx X_U1.x_lm741.dy X_U2.x_lm741.dx 
          IS   30.000000E-18  800.000000E-18  800.000000E-18  800.000000E-18 
          RS                    1               1.000000E-03    1            
         CJO                                   10.000000E-12                 


               X_U2.x_lm741.dy X_U6.x_lm741.dx X_U6.x_lm741.dy X_U8.x_lm741.dx 
          IS  800.000000E-18  800.000000E-18  800.000000E-18  800.000000E-18 
          RS    1.000000E-03    1               1.000000E-03    1            
         CJO   10.000000E-12                   10.000000E-12                 


               X_U8.x_lm741.dy 
          IS  800.000000E-18 
          RS    1.000000E-03 
         CJO   10.000000E-12 


**** 07/01/19 09:24:04 ***** PSpice 16.6.0 (October 2012) ***** ID# 0 ********

 ** Profile: "SCHEMATIC1-t"  [ C:\Workspace\Cadence\temperature\t-pspicefiles\schematic1\t.sim ] 


 ****     BJT MODEL PARAMETERS


******************************************************************************




               X_U5B.qx        X_U5A.qx        X_Q1.model4     X_Q2.model4     
               PNP             PNP             NPN             NPN             
       LEVEL    1               1               1               1            
          IS  800.000000E-18  800.000000E-18  166.780000E-15  166.780000E-15 
          BF   32.03           32.03          150             150            
          NF    1               1               1.074           1.074        
         VAF                                   78              78            
         IKF                                     .5              .5          
         ISE                                    3.920000E-12    3.920000E-12 
          NE                                    1.776           1.776        
          BR    1               1               2.394           2.394        
          NR    1               1               1.074           1.074        
         VAR                                  500             500            
          NC                                    1               1            
         ISS    0               0               0               0            
          RB                                     .676            .676        
         RBM                                     .676            .676        
          RE    0               0                .1              .1          
          RC    0               0                .654            .654        
         CJE    0               0              22.250000E-12   22.250000E-12 
         VJE     .75             .75            1.333           1.333        
         MJE                                     .522            .522        
         CJC    0               0               8.370000E-12    8.370000E-12 
         VJC     .75             .75            1.333           1.333        
         MJC     .33             .33             .518            .518        
        XCJC    1               1                .5              .5          
         CJS    0               0               0               0            
         VJS     .75             .75             .7              .7          
         MJS                                     .5              .5          
          TF                                  454.400000E-12  454.400000E-12 
         XTF                                   13.24           13.24         
         VTF                                    4.83            4.83         
         ITF                                     .2163           .2163       
          TR                                  117.500000E-09  117.500000E-09 
         XTB                                    2.34            2.34         
          KF    0               0               0               0            
          AF    1               1               1               1            
          CN    2.2             2.2             2.42            2.42         
           D     .52             .52             .87             .87         


               X_U7.QPL        X_U7.QNL        X_U1.x_lm741.qx X_U2.x_lm741.qx 
               PNP             NPN             NPN             NPN             
       LEVEL    1               1               1               1            
          IS  100.000000E-18  100.000000E-18  800.000000E-18  800.000000E-18 
          BF  100             100              93.75           93.75         
          NF    1               1               1               1            
          BR    1               1               1               1            
          NR    1               1               1               1            
         ISS    0               0               0               0            
          RE    0               0               0               0            
          RC    0               0               0               0            
         CJE    0               0               0               0            
         VJE     .75             .75             .75             .75         
         CJC    0               0               0               0            
         VJC     .75             .75             .75             .75         
         MJC     .33             .33             .33             .33         
        XCJC    1               1               1               1            
         CJS    0               0               0               0            
         VJS     .75             .75             .75             .75         
          KF    0               0               0               0            
          AF    1               1               1               1            
          CN    2.2             2.42            2.42            2.42         
           D     .52             .87             .87             .87         


               X_U6.x_lm741.qx X_U8.x_lm741.qx 
               NPN             NPN             
       LEVEL    1               1            
          IS  800.000000E-18  800.000000E-18 
          BF   93.75           93.75         
          NF    1               1            
          BR    1               1            
          NR    1               1            
         ISS    0               0            
          RE    0               0            
          RC    0               0            
         CJE    0               0            
         VJE     .75             .75         
         CJC    0               0            
         VJC     .75             .75         
         MJC     .33             .33         
        XCJC    1               1            
         CJS    0               0            
         VJS     .75             .75         
          KF    0               0            
          AF    1               1            
          CN    2.42            2.42         
           D     .87             .87         


**** 07/01/19 09:24:04 ***** PSpice 16.6.0 (October 2012) ***** ID# 0 ********

 ** Profile: "SCHEMATIC1-t"  [ C:\Workspace\Cadence\temperature\t-pspicefiles\schematic1\t.sim ] 


 ****     Junction FET MODEL PARAMETERS


******************************************************************************




               X_U7.JC         
               NJF             
         VTO   -2            
        BETA  100.000000E-06 
          IS    1.000000E-18 


**** 07/01/19 09:24:04 ***** PSpice 16.6.0 (October 2012) ***** ID# 0 ********

 ** Profile: "SCHEMATIC1-t"  [ C:\Workspace\Cadence\temperature\t-pspicefiles\schematic1\t.sim ] 


 ****     MOSFET MODEL PARAMETERS


******************************************************************************




               X_U7.PSD        X_U7.POUT       X_U7.NOUT       X_U7.PIN        
               PMOS            PMOS            NMOS            PMOS            
       LEVEL    1               1               1               1            
           L  100.000000E-06  100.000000E-06  100.000000E-06  100.000000E-06 
           W  100.000000E-06  100.000000E-06  100.000000E-06  100.000000E-06 
         VTO    -.5             -.7              .7             -.35         
          KP  200.000000E-06  200.000000E-06  200.000000E-06  200.000000E-06 
       GAMMA    0               0               0               0            
         PHI     .6              .6              .6              .6          
      LAMBDA    0               0               0               0            
          IS    1.000000E-18   10.000000E-15   10.000000E-15   10.000000E-15 
          JS    0               0               0               0            
          PB     .8              .8              .8              .8          
        PBSW     .8              .8              .8              .8          
          CJ    0               0               0               0            
        CJSW    0               0               0               0            
        CGSO    0               0               0               0            
        CGDO    0               0               0               0            
        CGBO    0               0               0               0            
         TOX    0               0               0               0            
          XJ    0               0               0               0            
       UCRIT   10.000000E+03   10.000000E+03   10.000000E+03   10.000000E+03 
      DIOMOD    1               1               1               1            
         VFB    0               0               0               0            
        LETA    0               0               0               0            
        WETA    0               0               0               0            
          U0    0               0               0               0            
        TEMP    0               0               0               0            
         VDD    5               5               5               5            
       XPART    0               0               0               0            


               X_U7.NIN        X_U7.PINT       
               NMOS            PMOS            
       LEVEL    1               1            
           L  100.000000E-06  100.000000E-06 
           W  100.000000E-06  100.000000E-06 
         VTO     .35            -.35         
          KP  200.000000E-06  200.000000E-06 
       GAMMA    0               0            
         PHI     .6              .6          
      LAMBDA    0                .01         
          IS   10.000000E-15   10.000000E-15 
          JS    0               0            
          PB     .8              .8          
        PBSW     .8              .8          
          CJ    0               0            
        CJSW    0               0            
        CGSO    0               0            
        CGDO    0               0            
        CGBO    0               0            
         TOX    0               0            
          XJ    0               0            
       UCRIT   10.000000E+03   10.000000E+03 
      DIOMOD    1               1            
         VFB    0               0            
        LETA    0               0            
        WETA    0               0            
          U0    0               0            
        TEMP    0               0            
         VDD    5               5            
       XPART    0               0            


**** 07/01/19 09:24:04 ***** PSpice 16.6.0 (October 2012) ***** ID# 0 ********

 ** Profile: "SCHEMATIC1-t"  [ C:\Workspace\Cadence\temperature\t-pspicefiles\schematic1\t.sim ] 


 ****     Resistor MODEL PARAMETERS


******************************************************************************




               X_D6.MDR        X_D6.MDRBV      
           R    1               1            
         TC1                  284.722000E-06 


Starting pseudo-transient algorithm.

ERROR -- Convergence problem in transient bias point calculation


  Last node voltages tried were:

 NODE   VOLTAGE     NODE   VOLTAGE     NODE   VOLTAGE     NODE   VOLTAGE


(    T)    0.0000  (   -2)    0.0000  ( +10V)    0.0000  ( -10V)    0.0000      

(DIRECT)    0.0000 (N00356)    0.0000 (N00360)    0.0000 (N00585)    0.0000     

(N03994)    0.0000 (N03998)    0.0000 (N04022)    0.0000 (N04034)    0.0000     

(N04048)    0.0000 (N08387)    0.0000 (N09631)    0.0000 (N16156)    0.0000     

(N18335)    0.0000 (N22139)    0.0000 (N22147)    0.0000 (N27662)    0.0000     

(N27934)    0.0000 (SQUARE)    0.0000 (X_D6.3)    0.0000 (X_D6.4)    0.0000     

(X_D6.5)    0.0000 (X_D6.6)    0.0000 (X_U7.1)    0.0000 (X_U7.6)    0.0000     

(X_U7.7)    0.0000 (X_U7.8)    0.0000 (X_U7.9)    0.0000 (N009551)    0.0000    

(N173240)    0.0000                   (X_U5A.6)    0.0000                       

(X_U5A.7)    0.0000                   (X_U5A.8)    0.0000                       

(X_U5A.9)    0.0000                   (X_U5B.6)    0.0000                       

(X_U5B.7)    0.0000                   (X_U5B.8)    0.0000                       

(X_U5B.9)    0.0000                   (X_U7.10)    0.0000                       

(X_U7.11)    0.0000                   (X_U7.12)    0.0000                       

(X_U7.13)    0.0000                   (X_U7.14)    0.0000                       

(X_U7.15)    0.0000                   (X_U7.16)    0.0000                       

(X_U7.17)    0.0000                   (X_U7.18)    0.0000                       

(X_U7.19)    0.0000                   (X_U7.20)    0.0000                       

(X_U7.21)    0.0000                   (X_U7.22)    0.0000                       

(X_U7.23)    0.0000                   (X_U7.24)    0.0000                       

(X_U7.25)    0.0000                   (X_U7.26)    0.0000                       

(X_U7.27)    0.0000                   (X_U7.28)    0.0000                       

(X_U7.29)    0.0000                   (X_U7.30)    0.0000                       

(X_U7.31)    0.0000                   (X_U7.32)    0.0000                       

(X_U7.33)    0.0000                   (X_U7.34)    0.0000                       

(X_U7.35)    0.0000                   (X_U7.36)    0.0000                       

(X_U7.37)    0.0000                   (X_U7.38)    0.0000                       

(X_U7.39)    0.0000                   (X_U7.40)    0.0000                       

(X_U7.41)    0.0000                   (X_U7.42)    0.0000                       

(X_U7.43)    0.0000                   (X_U7.44)    0.0000                       

(X_U7.45)    0.0000                   (X_U7.46)    0.0000                       

(X_U7.47)    0.0000                   (X_U7.48)    0.0000                       

(X_U7.49)    0.0000                   (X_U7.50)    0.0000                       

(X_U7.51)    0.0000                   (X_U7.52)    0.0000                       

(X_U7.53)    0.0000                   (X_U7.54)    0.0000                       

(X_U7.55)    0.0000                   (X_U7.56)    0.0000                       

(X_U7.57)    0.0000                   (X_U7.58)    0.0000                       

(X_U7.59)    0.0000                   (X_U7.60)    0.0000                       

(X_U7.61)    0.0000                   (X_U7.62)    0.0000                       

(X_U7.63)    0.0000                   (X_U7.64)    0.0000                       

(X_U7.65)    0.0000                   (X_U7.66)    0.0000                       

(X_U7.67)    0.0000                   (X_U7.68)    0.0000                       

(X_U7.69)    0.0000                   (X_U7.70)    0.0000                       

(X_U7.71)    0.0000                   (X_U7.72)    0.0000                       

(X_U7.73)    0.0000                   (X_U7.74)    0.0000                       

(X_U7.75)    0.0000                   (X_U7.76)    0.0000                       

(X_U7.77)    0.0000                   (X_U7.78)    0.0000                       

(X_U7.79)    0.0000                   (X_U7.80)    0.0000                       

(X_U7.81)    0.0000                   (X_U7.82)    0.0000                       

(X_U7.83)    0.0000                   (X_U7.84)    0.0000                       

(X_U7.85)    0.0000                   (X_U7.86)    0.0000                       

(X_U7.87)    0.0000                   (X_U7.88)    0.0000                       

(X_U7.89)    0.0000                   (X_U7.90)    0.0000                       

(TESTWAVE)    0.0000                  (X_U5A.10)    0.0000                      

(X_U5A.11)    0.0000                  (X_U5A.12)    0.0000                      

(X_U5A.13)    0.0000                  (X_U5A.14)    0.0000                      

(X_U5A.53)    0.0000                  (X_U5A.54)    0.0000                      

(X_U5A.90)    0.0000                  (X_U5A.91)    0.0000                      

(X_U5A.92)    0.0000                  (X_U5A.99)    0.0000                      

(X_U5B.10)    0.0000                  (X_U5B.11)    0.0000                      

(X_U5B.12)    0.0000                  (X_U5B.13)    0.0000                      

(X_U5B.14)    0.0000                  (X_U5B.53)    0.0000                      

(X_U5B.54)    0.0000                  (X_U5B.90)    0.0000                      

(X_U5B.91)    0.0000                  (X_U5B.92)    0.0000                      

(X_U5B.99)    0.0000                  (REFERENCE)    0.0000                     

(ALTERNATING)    0.0000               (TEMPERATURE)    0.0000                   

(X_U1.x_lm741.6)    0.0000            (X_U1.x_lm741.7)    0.0000                

(X_U1.x_lm741.8)    0.0000            (X_U1.x_lm741.9)    0.0000                

(X_U2.x_lm741.6)    0.0000            (X_U2.x_lm741.7)    0.0000                

(X_U2.x_lm741.8)    0.0000            (X_U2.x_lm741.9)    0.0000                

(X_U6.x_lm741.6)    0.0000            (X_U6.x_lm741.7)    0.0000                

(X_U6.x_lm741.8)    0.0000            (X_U6.x_lm741.9)    0.0000                

(X_U8.x_lm741.6)    0.0000            (X_U8.x_lm741.7)    0.0000                

(X_U8.x_lm741.8)    0.0000            (X_U8.x_lm741.9)    0.0000                

(X_U1.x_lm741.10)    0.0000           (X_U1.x_lm741.11)    0.0000               

(X_U1.x_lm741.12)    0.0000           (X_U1.x_lm741.13)    0.0000               

(X_U1.x_lm741.14)    0.0000           (X_U1.x_lm741.53)    0.0000               

(X_U1.x_lm741.54)    0.0000           (X_U1.x_lm741.90)    0.0000               

(X_U1.x_lm741.91)    0.0000           (X_U1.x_lm741.92)    0.0000               

(X_U1.x_lm741.99)    0.0000           (X_U2.x_lm741.10)    0.0000               

(X_U2.x_lm741.11)    0.0000           (X_U2.x_lm741.12)    0.0000               

(X_U2.x_lm741.13)    0.0000           (X_U2.x_lm741.14)    0.0000               

(X_U2.x_lm741.53)    0.0000           (X_U2.x_lm741.54)    0.0000               

(X_U2.x_lm741.90)    0.0000           (X_U2.x_lm741.91)    0.0000               

(X_U2.x_lm741.92)    0.0000           (X_U2.x_lm741.99)    0.0000               

(X_U6.x_lm741.10)    0.0000           (X_U6.x_lm741.11)    0.0000               

(X_U6.x_lm741.12)    0.0000           (X_U6.x_lm741.13)    0.0000               

(X_U6.x_lm741.14)    0.0000           (X_U6.x_lm741.53)    0.0000               

(X_U6.x_lm741.54)    0.0000           (X_U6.x_lm741.90)    0.0000               

(X_U6.x_lm741.91)    0.0000           (X_U6.x_lm741.92)    0.0000               

(X_U6.x_lm741.99)    0.0000           (X_U8.x_lm741.10)    0.0000               

(X_U8.x_lm741.11)    0.0000           (X_U8.x_lm741.12)    0.0000               

(X_U8.x_lm741.13)    0.0000           (X_U8.x_lm741.14)    0.0000               

(X_U8.x_lm741.53)    0.0000           (X_U8.x_lm741.54)    0.0000               

(X_U8.x_lm741.90)    0.0000           (X_U8.x_lm741.91)    0.0000               

(X_U8.x_lm741.92)    0.0000           (X_U8.x_lm741.99)    0.0000               

(X_D7.xinst1n4621.1)    0.0000        (X_D7.xinst1n4621.3)    0.0000            

(X_D7.xinst1n4621.9)    0.0000        


**** Interrupt ****
